! RHF DEF2-QZVPP PrintBasis
* xyz 0 1
6        6.635414268      3.240210178      5.545565612
1        7.165848214      2.288876355      5.621755642
1        7.351961953      4.062069979      5.603072260
1        5.918866583      3.324054443      6.365157393
1        6.104980323      3.285839933      4.592277152
*
